Replication/results/database/8_BranchFlow_DG_in.csv
From node,To node,Branch,I a (A),I b (A),I c (A),P (kW),Q (kvar),Loss (kW),Active power flows
SubstationHV,650,TrSubstation (transformer),-9.9,+8.2,+11.2,+310.3,+1900.6,7.91,SubstationHV -> 650
650,RG60,Vreg A+B+C (regulator),+281.2,-195.1,+304.5,+302.3,+1837.3,0.00,650 -> RG60
RG60,632,LOHL650-632 (line),+264.6,-185.8,+284.9,+302.3,+1837.3,14.02,RG60 -> 632
632,633,LOHL632-633 (line),+78.8,+60.3,+61.3,+406.1,+300.6,0.88,632 -> 633
632,645,LOHL632-645 (line),-,+143.2,+66.7,+425.6,+272.5,3.39,632 -> 645
632,nDL1,LOHL632-671start (line),+210.3,-233.3,-179.3,-543.3,+1220.6,2.02,nDL1 -> 632
633,634,XFM-1 (transformer),+78.8,+60.3,+61.3,+405.2,+299.5,5.18,633 -> 634
645,646,LOHL645-646 (line),-,+66.7,+66.7,+252.2,+144.9,0.57,645 -> 646
nDL1,nDL2,s2LOHL632-671 (line),+209.5,-236.9,-174.2,-585.3,+1191.8,2.00,nDL2 -> nDL1
nDL2,nDL,s3LOHL632-671 (line),+208.7,-240.6,-169.7,-627.3,+1163.0,1.98,nDL -> nDL2
nDL,nDL4,s4LOHL632-671 (line),+207.9,-244.4,-165.9,-669.3,+1134.2,1.97,nDL4 -> nDL
nDL,DL,LDL (line),+1.6,+5.9,+11.0,+40.0,+23.2,0.00,nDL -> DL
nDL4,nDL5,s5LOHL632-671 (line),-207.1,-248.2,-162.7,-711.3,+1105.4,1.98,nDL5 -> nDL4
nDL5,671,LOHL632-671end (line),-206.3,-252.2,-160.2,-753.3,+1076.7,1.98,671 -> nDL5
671,684,LOHL671-684 (line),+65.9,-,+71.3,+307.6,+71.0,0.60,671 -> 684
671,680,LOHL671-680 (line),0.0,0.0,0.0,+0.0,-0.0,0.00,no flow
671,692,Switch (switch),-230.5,-392.8,-287.5,-2217.8,+340.1,0.00,692 -> 671
684,652,LC684-652A (line),+65.9,-,-,+135.7,+90.8,0.79,684 -> 652
684,611,LOHL684-611 (line),-,-,+71.3,+171.3,-20.3,0.39,684 -> 611
692,675,LC692-675 (line),+196.8,+71.6,+119.9,+847.0,-181.4,3.96,692 -> 675
692,DG,2-Winding Transformer (transformer),-430.8,-421.7,-455.3,-3240.0,+365.8,0.00,DG -> 692
